Circuit: * C:\Users\Aarranon\ElectronicsProjects\1KHz Sine Source\main.asc

Direct Newton iteration failed to find .op point.  (Use ".option noopiter" to skip.)
Starting Gmin stepping
Gmin = 10
Gmin = 1.07374
Gmin = 0.115292
Gmin = 0.0123794
Gmin = 0.00132923
Gmin = 0.000142725
vernier = 0.5
vernier = 0.25
vernier = 0.125
vernier = 0.0625
Gmin = 0.000130259
vernier = 0.03125
vernier = 0.0416667
Gmin = 0.00012083
vernier = 0.0555555
Gmin = 0.000106716
vernier = 0.074074
vernier = 0.0987653
Gmin = 8.67049e-005
vernier = 0.131687
vernier = 0.175583
Gmin = 6.23934e-005
vernier = 0.23411
Gmin = 3.73506e-005
vernier = 0.312147
vernier = 0.416196
Gmin = 1.60156e-005
vernier = 0.554928
vernier = 0.739903
Gmin = 4.29159e-006
vernier = 0.986537
Gmin = 5.7989e-007
vernier = 1
Gmin = 6.22652e-008
Gmin = 6.68567e-009
Gmin = 7.17869e-010
Gmin = 7.70806e-011
Gmin = 8.27646e-012
Gmin = 8.88678e-013
Gmin = 0
Gmin = 0
Gmin stepping succeeded in finding the operating point.

Heightened Def Con from 0.0138529 to 0.0138529
Heightened Def Con from 0.0139049 to 0.0139049
Heightened Def Con from 0.0164351 to 0.0164351
Heightened Def Con from 0.0173954 to 0.0173954
Heightened Def Con from 0.0184589 to 0.0184589
Heightened Def Con from 0.0204827 to 0.0204827
Heightened Def Con from 0.0209885 to 0.0209885
Heightened Def Con from 0.0249847 to 0.0249847
Heightened Def Con from 0.0326261 to 0.0326261
Heightened Def Con from 0.0406698 to 0.0406698
Heightened Def Con from 0.0427458 to 0.0427458
Heightened Def Con from 0.0437577 to 0.0437577
Heightened Def Con from 0.0487651 to 0.0487651
Heightened Def Con from 0.0488172 +to 0.0488172
Heightened Def Con from 0.0497769 to 0.0497769
Heightened Def Con from 0.0559007 to 0.0559007
Heightened Def Con from 0.0589363 to 0.0589363
Heightened Def Con from 0.0593906 to 0.0593906

Date: Mon Jul 20 12:23:23 2020
Total elapsed time: 15.209 seconds.

tnom = 27
temp = 27
method = modified trap
totiter = 658723
traniter = 657643
tranpoints = 153352
accept = 114849
rejected = 38522
matrix size = 138
fillins = 160
solver = Normal
Thread vector: 13.6/11.4[3] 2.0/3.7[1] 4.9/4.9[1] 1.4/3.5[1]  2592/500
Matrix Compiler1: 16.22 KB object code size  4.1/1.7/[0.8]
Matrix Compiler2: 14.06 KB object code size  2.6/4.5/[1.1]

